Circuit: * C:\Users\vines\OneDrive - Durham University\Year 4\Engineering_Y4\Capstone Project\mypythonlibrary\power_converter\ltspice_circuits\buck_circuit.asc

WARNING: Specified period is not longer than the sum of Trise, Tfall, and Ton for v2.  Increasing period to 0.000133333
Limiting rise time of source v2 to 2.71051e-20
Limiting fall time of source v2 to 2.71051e-20
Direct Newton iteration for .op point succeeded.

Date: Tue Apr  8 22:52:17 2025
Total elapsed time: 0.250 seconds.

tnom = 27
temp = 27
method = modified trap
totiter = 76985
traniter = 76979
tranpoints = 25210
accept = 17531
rejected = 7679
matrix size = 11
fillins = 3
solver = Normal
Avg thread counts: 1.1/1.2/1.2/1.1
Matrix Compiler1: 722 bytes object code size  0.2/0.1/[0.1]
Matrix Compiler2: 889 bytes object code size  0.1/0.2/[0.1]

